pyensys/tests/matpower/Distribution_Network_Rural_UK_v2.m
% THIS MATLAB FILE PROVIDES THE PARAMETERS OF THE ELECTRICITY NETWORK IN GHANA

function mpc = Distribution_Network_Rural_UK

% MATPOWER Case Format : Version 2
mpc.version = '2';


%-----  Power Flow Data  -----%

% system MVA base
mpc.baseMVA = 100;

% bus data
% bus_i	type Pd	    Qd	    Gs	Bs	area Vm	   Va	baseKV	zone Vmax	Vmin
mpc.bus = [
	  1 1   0.0000   0.0000 0 0 1  1.0000 0 6.600000e+00 1  1.06  0.94;
	  2 1   0.0000   0.0000 0 0 1  1.0000 0 6.600000e+00 1  1.06  0.94;
	  3 3   0.0000   0.0000 0 0 1  1.0000 0 6.600000e+00 1  1.06  0.94;
	  4 1   0.0000   0.0000 0 0 1  1.0000 0 6.600000e+00 1  1.06  0.94;
	  5 1   0.0000   0.0000 0 0 1  1.0000 0 6.600000e+00 1  1.06  0.94;
	  6 1   0.0000   0.0000 0 0 1  1.0000 0 6.600000e+00 1  1.06  0.94;
	  7 1   0.0000   0.0000 0 0 1  1.0000 0 6.600000e+00 1  1.06  0.94;
	  8 1   0.0000   0.0000 0 0 1  1.0000 0 6.600000e+00 1  1.06  0.94;
	  9 1   0.0000   0.0000 0 0 1  1.0000 0 6.600000e+00 1  1.06  0.94;
	 10 1   0.0000   0.0000 0 0 1  1.0000 0 6.600000e+00 1  1.06  0.94;
	 11 1   0.0000   0.0000 0 0 1  1.0000 0 6.600000e+00 1  1.06  0.94;
	 12 1   0.1946   0.0640 0 0 1  0.9916 2.747100e-02 6.600000e+00 1  1.06  0.94;
	 13 1   0.6403   0.2105 0 0 1  0.9935 7.826100e-04 6.600000e+00 1  1.06  0.94;
	 14 1   0.0000   0.0000 0 0 1  0.9959 4.650900e-04 6.600000e+00 1  1.06  0.94;
	 15 1   0.0000   0.0000 0 0 1  0.9999 -1.838400e-03 6.600000e+00 1  1.06  0.94;
	 16 1   0.1839   0.0605 0 0 1  0.9951 -7.320700e-02 6.600000e+00 1  1.06  0.94;
	 17 1   0.2920   0.0960 0 0 1  0.9911 -7.933000e-02 6.600000e+00 1  1.06  0.94;
	 18 1   0.0487   0.0160 0 0 1  0.9881 -9.604000e-02 6.600000e+00 1  1.06  0.94;
	 19 1   0.4360   0.1433 0 0 1  0.9965 -8.140200e-02 6.600000e+00 1  1.06  0.94;
	 20 1   0.1129   0.0371 0 0 1  0.9986 -3.180600e-02 6.600000e+00 1  1.06  0.94;
	 21 1   0.3591   0.1180 0 0 1  0.9872 4.607300e-02 6.600000e+00 1  1.06  0.94;
	 22 1   0.1917   0.0630 0 0 1  0.9881 4.595600e-02 6.600000e+00 1  1.06  0.94;
	 23 1   0.0000   0.0000 0 0 1  0.9887 -8.879900e-02 6.600000e+00 1  1.06  0.94;
	 24 1   0.0000   0.0000 0 0 1  0.9887 -8.808000e-02 6.600000e+00 1  1.06  0.94;
	 25 1   0.0243   0.0080 0 0 1  0.9857 -1.957400e-01 6.600000e+00 1  1.06  0.94;
	 26 1   0.0000   0.0000 0 0 1  0.9876 -1.282300e-01 6.600000e+00 1  1.06  0.94;
	 27 1   0.1839   0.0605 0 0 1  0.9757 -3.499300e-01 6.600000e+00 1  1.06  0.94;
	 28 1   0.0078   0.0026 0 0 1  0.9677 -7.791700e-01 6.600000e+00 1  1.06  0.94;
	 29 1   0.3309   0.1088 0 0 1  0.9895 -7.861000e-02 6.600000e+00 1  1.06  0.94;
	 30 1   0.0000   0.0000 0 0 1  0.9809 -3.470000e-01 6.600000e+00 1  1.06  0.94;
	 31 1   0.0000   0.0000 0 0 1  0.9815 -3.464800e-01 6.600000e+00 1  1.06  0.94;
	 32 1   0.0000   0.0000 0 0 1  0.9759 -3.501000e-01 6.600000e+00 1  1.06  0.94;
	 33 1   0.0078   0.0026 0 0 1  0.9744 -5.974200e-01 6.600000e+00 1  1.06  0.94;
	 34 1   0.0000   0.0000 0 0 1  0.9792 -4.313800e-01 6.600000e+00 1  1.06  0.94;
	 35 1   0.0117   0.0038 0 0 1  0.9742 -5.922400e-01 6.600000e+00 1  1.06  0.94;
	 36 1   0.0117   0.0038 0 0 1  0.9747 -5.947300e-01 6.600000e+00 1  1.06  0.94;
	 37 1   0.0000   0.0000 0 0 1  0.9747 -5.938700e-01 6.600000e+00 1  1.06  0.94;
	 38 1   0.0000   0.0000 0 0 1  0.9748 -5.924600e-01 6.600000e+00 1  1.06  0.94;
	 39 1   0.0000   0.0000 0 0 1  0.9747 -5.950700e-01 6.600000e+00 1  1.06  0.94;
	 40 1   0.0000   0.0000 0 0 1  0.9747 -5.943300e-01 6.600000e+00 1  1.06  0.94;
	 41 1   0.0243   0.0080 0 0 1  0.9675 -8.413500e-01 6.600000e+00 1  1.06  0.94;
	 42 1   0.0049   0.0016 0 0 1  0.9700 -7.481500e-01 6.600000e+00 1  1.06  0.94;
	 43 1   0.0078   0.0026 0 0 1  0.9678 -7.776600e-01 6.600000e+00 1  1.06  0.94;
	 44 1   0.0000   0.0000 0 0 1  0.9698 -7.513000e-01 6.600000e+00 1  1.06  0.94;
	 45 1   0.0000   0.0000 0 0 1  0.9705 -7.288900e-01 6.600000e+00 1  1.06  0.94;
	 46 1   0.0000   0.0000 0 0 1  0.9700 -7.479300e-01 6.600000e+00 1  1.06  0.94;
	 47 1   0.0243   0.0080 0 0 1  0.9669 -8.646200e-01 6.600000e+00 1  1.06  0.94;
	 48 1   0.0078   0.0026 0 0 1  0.9669 -8.629900e-01 6.600000e+00 1  1.06  0.94;
	 49 1   0.0078   0.0026 0 0 1  0.9665 -7.950300e-01 6.600000e+00 1  1.06  0.94;
	 50 1   0.0049   0.0016 0 0 1  0.9662 -7.987800e-01 6.600000e+00 1  1.06  0.94;
	 51 1   0.0117   0.0038 0 0 1  0.9660 -8.022200e-01 6.600000e+00 1  1.06  0.94;
	 52 1   0.1168   0.0384 0 0 1  0.9653 -9.214700e-01 6.600000e+00 1  1.06  0.94;
	 53 1   0.0243   0.0080 0 0 1  0.9661 -8.928500e-01 6.600000e+00 1  1.06  0.94;
	 54 1   0.0243   0.0080 0 0 1  0.9661 -8.009400e-01 6.600000e+00 1  1.06  0.94;
	 55 1   0.0019   0.0006 0 0 1  0.9669 -7.895800e-01 6.600000e+00 1  1.06  0.94;
	 56 1   0.0000   0.0000 0 0 1  0.9654 -9.215400e-01 6.600000e+00 1  1.06  0.94;
	 57 1   0.0000   0.0000 0 0 1  0.9661 -8.009400e-01 6.600000e+00 1  1.06  0.94;
	 58 1   0.0000   0.0000 0 0 1  0.9663 -7.974900e-01 6.600000e+00 1  1.06  0.94;
	 59 1   0.0000   0.0000 0 0 1  0.9669 -7.894300e-01 6.600000e+00 1  1.06  0.94;
	 60 1   0.0000   0.0000 0 0 1  0.9654 -9.215400e-01 6.600000e+00 1  1.06  0.94;
	 61 1   0.0000   0.0000 0 0 1  0.9661 -8.009100e-01 6.600000e+00 1  1.06  0.94;
	 62 1   0.0049   0.0016 0 0 1  0.9658 -8.037600e-01 6.600000e+00 1  1.06  0.94;
	 63 1   0.0068   0.0022 0 0 1  0.9656 -8.039200e-01 6.600000e+00 1  1.06  0.94;
	 64 1   0.0000   0.0000 0 0 1  0.9658 -8.037900e-01 6.600000e+00 1  1.06  0.94;
	 65 1   0.0000   0.0000 0 0 1  0.9659 -8.037500e-01 6.600000e+00 1  1.06  0.94;
	 66 1   0.0019   0.0006 0 0 1  0.9746 -5.954100e-01 6.600000e+00 1  1.06  0.94;
	];

% branch data
%fbus tbus	r           x	    b	    rateA   B	C ratio	angle status angmin	angmax
mpc.branch = [
	 16  22   0.00471200   0.00373711 0.000000 7.716001e+00 9.259201e+00 9.259201 0.000000 0.000000 1 -360 360; % NOP
	  6   3   0.00000083   0.00000083 0.000000 6.000001e+01 7.200002e+01 72.000016 0.000000 0.000000 1 -360 360;
	  8   6   0.00000826   0.00000826 0.000000 6.000001e+01 7.200002e+01 72.000016 0.000000 0.000000 1 -360 360;
	  1   8   0.00000661   0.00000661 0.000000 6.000001e+01 7.200002e+01 72.000016 0.000000 0.000000 1 -360 360;
	  2   1   0.00000082   0.00000082 0.000000 6.000001e+01 7.200002e+01 72.000016 0.000000 0.000000 1 -360 360;
	  7   2   0.00000049   0.00000049 0.000000 6.000001e+01 7.200002e+01 72.000016 0.000000 0.000000 1 -360 360;
	  5   7   0.00000049   0.00000049 0.000000 6.000001e+01 7.200002e+01 72.000016 0.000000 0.000000 1 -360 360;
	 15   5   0.00319945   0.00271258 0.000000 5.256003e+00 6.307203e+00 6.307203 0.000000 0.000000 1 -360 360;
	 15  20   0.05208630   0.04416010 0.000000 5.256003e+00 6.307203e+00 6.307203 0.000000 0.000000 1 -360 360; % feeder 1
	 19  20   0.09123970   0.07735540 0.000000 5.256003e+00 6.307203e+00 6.307203 0.000000 0.000000 1 -360 360; % feeder 1 (another connection)
	 19  16   0.68392000   0.14768000 0.000000 2.796005e+00 3.355206e+00 3.355206 0.000000 0.000000 1 -360 360;
	 19  17   0.40170800   0.13099200 0.000000 3.486001e+00 4.183201e+00 4.183201 0.000000 0.000000 1 -360 360;
	 17  29   0.15143300   0.04938020 0.000000 3.486001e+00 4.183201e+00 4.183201 0.000000 0.000000 1 -360 360;
	 29  24   0.11702900   0.06758030 0.000000 4.110003e+00 4.932003e+00 4.932003 0.000000 0.000000 1 -360 360;
	 24  26   0.14845700   0.17960100 0.000000 2.604001e+00 3.124801e+00 3.124801 0.000000 0.000000 1 -360 360;
	 26  25   0.24888400   0.30109500 0.000000 2.604001e+00 3.124801e+00 3.124801 0.000000 0.000000 1 -360 360;
	 25  31   0.57927500   0.70079400 0.000000 2.604001e+00 3.124801e+00 3.124801 0.000000 0.000000 1 -360 360;
	 31  34   0.51523400   0.62332000 0.000000 2.604001e+00 3.124801e+00 3.124801 0.000000 0.000000 1 -360 360;
	 34  38   0.97079400   1.17445000 0.000000 2.604001e+00 3.124801e+00 3.124801 0.000000 0.000000 1 -360 360;
	 35  38   0.16157000   0.05268600 0.000000 3.486001e+00 4.183201e+00 4.183201 0.000000 0.000000 1 -360 360;
	 45  35   0.91257600   1.10402000 0.000000 2.604001e+00 3.124801e+00 3.124801 0.000000 0.000000 1 -360 360;
	 45  46   0.12662500   0.15318900 0.000000 2.604001e+00 3.124801e+00 3.124801 0.000000 0.000000 1 -360 360;
	 46  41   0.87910000   1.06352000 0.000000 2.604001e+00 3.124801e+00 3.124801 0.000000 0.000000 1 -360 360;
	 41  48   0.23141900   0.27996600 0.000000 2.604001e+00 3.124801e+00 3.124801 0.000000 0.000000 1 -360 360;
	 48  53   0.39152000   0.47365200 0.000000 2.604001e+00 3.124801e+00 3.124801 0.000000 0.000000 1 -360 360;
	 53  60   0.45395000   0.54918000 0.000000 2.604001e+00 3.124801e+00 3.124801 0.000000 0.000000 1 -360 360;
	 52  60   0.03802050   0.01138140 0.000000 4.116004e+00 4.939205e+00 4.939205 0.000000 0.000000 1 -360 360;
	 60  56   0.12806000   0.09596300 0.000000 2.604001e+00 3.124801e+00 3.124801 0.000000 0.000000 1 -360 360;
	 48  47   0.12371400   0.14966700 0.000000 2.604001e+00 3.124801e+00 3.124801 0.000000 0.000000 1 -360 360;
	 46  42   0.26364100   0.15835200 0.000000 1.919995e+00 2.303994e+00 2.303994 0.000000 0.000000 1 -360 360;
	 44  46   0.26074400   0.15661200 0.000000 1.919995e+00 2.303994e+00 2.303994 0.000000 0.000000 1 -360 360;
	 43  44   2.03960000   1.22505000 0.000000 1.919995e+00 2.303994e+00 2.303994 0.000000 0.000000 1 -360 360;
	 59  43   1.13568000   0.68213000 0.000000 1.919995e+00 2.303994e+00 2.303994 0.000000 0.000000 1 -360 360;
	 49  59   0.55625300   0.33410500 0.000000 1.919995e+00 2.303994e+00 2.303994 0.000000 0.000000 1 -360 360;
	 58  49   0.28102400   0.16879200 0.000000 1.919995e+00 2.303994e+00 2.303994 0.000000 0.000000 1 -360 360;
	 58  50   0.27233200   0.16357200 0.000000 1.919995e+00 2.303994e+00 2.303994 0.000000 0.000000 1 -360 360;
	 50  61   0.54629500   0.32812400 0.000000 1.919995e+00 2.303994e+00 2.303994 0.000000 0.000000 1 -360 360;
	 61  51   0.33483900   0.20111600 0.000000 1.919995e+00 2.303994e+00 2.303994 0.000000 0.000000 1 -360 360;
	 51  65   0.78802600   0.47331500 0.000000 1.919995e+00 2.303994e+00 2.303994 0.000000 0.000000 1 -360 360;
	 65  62   0.35149200   0.12043200 0.000000 1.134000e+00 1.360800e+00 1.360800 0.000000 0.000000 1 -360 360;
	 65  64   0.58197900   0.19940300 0.000000 1.134000e+00 1.360800e+00 1.360800 0.000000 0.000000 1 -360 360;
	 64  63   2.10675000   0.72442600 0.000000 1.056000e+00 1.267199e+00 1.267199 0.000000 0.000000 1 -360 360;
	 54  58   0.84886600   0.50985800 0.000000 1.919995e+00 2.303994e+00 2.303994 0.000000 0.000000 1 -360 360;
	 57  54   0.14775500   0.08874660 0.000000 1.919995e+00 2.303994e+00 2.303994 0.000000 0.000000 1 -360 360;
	 55  59   0.39338800   0.25289300 0.000000 1.715999e+00 2.059199e+00 2.059199 0.000000 0.000000 1 -360 360;
	 43  28   1.16466000   0.69953200 0.000000 1.919995e+00 2.303994e+00 2.303994 0.000000 0.000000 1 -360 360;
	 38  37   0.12371400   0.14966700 0.000000 2.604001e+00 3.124801e+00 3.124801 0.000000 0.000000 1 -360 360;
	 37  40   0.04075300   0.04930210 0.000000 2.604001e+00 3.124801e+00 3.124801 0.000000 0.000000 1 -360 360;
	 36  40   0.27322300   0.14727300 0.000000 1.799998e+00 2.159998e+00 2.159998 0.000000 0.000000 1 -360 360;
	 40  39   0.60336800   0.32522700 0.000000 1.799998e+00 2.159998e+00 2.159998 0.000000 0.000000 1 -360 360;
	 39  66   1.38129000   0.74454500 0.000000 1.799998e+00 2.159998e+00 2.159998 0.000000 0.000000 1 -360 360;
	 33  39   2.37932000   1.28250000 0.000000 1.799998e+00 2.159998e+00 2.159998 0.000000 0.000000 1 -360 360;
	 30  31   0.31405000   0.10798900 0.000000 1.056000e+00 1.267199e+00 1.267199 0.000000 0.000000 1 -360 360;
	 30  32   2.39730000   0.81619000 0.000000 1.056000e+00 1.267199e+00 1.267199 0.000000 0.000000 1 -360 360;
	 27  32   0.05348700   0.01601130 0.000000 4.116004e+00 4.939205e+00 4.939205 0.000000 0.000000 1 -360 360;
	 24  23   0.09270890   0.05568410 0.000000 1.919995e+00 2.303994e+00 2.303994 0.000000 0.000000 1 -360 360;
	 23  18   0.93288300   0.56032100 0.000000 1.919995e+00 2.303994e+00 2.303994 0.000000 0.000000 1 -360 360;
	  3   4   0.00000083   0.00000083 0.000000 6.000001e+01 7.200002e+01 72.000016 0.000000 0.000000 1 -360 360;
	  4   9   0.00000083   0.00000083 0.000000 6.000001e+01 7.200002e+01 72.000016 0.000000 0.000000 1 -360 360;
	  9  11   0.00000049   0.00000049 0.000000 6.000001e+01 7.200002e+01 72.000016 0.000000 0.000000 1 -360 360;
	 11  10   0.00000049   0.00000049 0.000000 6.000001e+01 7.200002e+01 72.000016 0.000000 0.000000 1 -360 360;
	 14  10   0.26695200   0.08704970 0.000000 3.486001e+00 4.183201e+00 4.183201 0.000000 0.000000 1 -360 360;
	 12  22   0.57917000   0.13301000 0.000000 2.796005e+00 3.355206e+00 3.355206 0.000000 0.000000 1 -360 360; % feeder 2
	 22  21   0.21162500   0.06900830 0.000000 3.486001e+00 4.183201e+00 4.183201 0.000000 0.000000 1 -360 360;
	 14  12   0.53326900   0.11289400 0.000000 2.796005e+00 3.355206e+00 3.355206 0.000000 0.000000 1 -360 360;
	 13  14   0.33019600   0.10767300 0.000000 3.486001e+00 4.183201e+00 4.183201 0.000000 0.000000 1 -360 360;
	];

% Generator data
% bus	Pg	    Qg	  Qmax Qmin	Vg   mBase status Pmax Pmin	Pc1	Pc2	Qc1min	Qc1max	Qc2min Qc2max ramp_acg	ramp_10	ramp_30	ramp_q  Apf
mpc.gen = [
	  3 3.340948 1.106580 1000 -1000 1 100 1 1000 -1000 0 0 0 0 0 0 0 0 0 0 0;
	];

%-----  OPF Data  -----

% Generator cost data
%	1	startup	shutdown	n	x1	y1	...	xn	yn
%	2	startup	shutdown	n	c(n-1)	...	c0
mpc.gencost = [
	2	0	0	3	0.25	20	0;
	];
